Version 4
SHEET 1 2388 844
WIRE -128 -320 -240 -320
WIRE 32 -320 -48 -320
WIRE -176 -208 -608 -208
WIRE 32 -208 32 -320
WIRE 32 -208 -112 -208
WIRE 160 -208 32 -208
WIRE 400 -208 160 -208
WIRE 640 -208 400 -208
WIRE 816 -208 752 -208
WIRE 864 -208 816 -208
WIRE 960 -208 928 -208
WIRE 1024 -208 960 -208
WIRE 1104 -208 1024 -208
WIRE 1184 -208 1104 -208
WIRE 1296 -208 1184 -208
WIRE 1552 -208 1296 -208
WIRE 1552 -160 1552 -208
WIRE 400 -144 400 -208
WIRE 640 -128 640 -208
WIRE 752 -128 752 -208
WIRE 816 -128 816 -208
WIRE 864 -128 816 -128
WIRE 960 -128 960 -208
WIRE 960 -128 928 -128
WIRE 160 -80 160 -208
WIRE -64 -32 -256 -32
WIRE 0 -32 -64 -32
WIRE 400 -32 400 -64
WIRE 400 -32 320 -32
WIRE -256 0 -256 -32
WIRE 640 16 640 -48
WIRE 640 16 464 16
WIRE 1024 16 1024 -208
WIRE 1104 16 1104 -208
WIRE 1184 16 1184 -208
WIRE 1296 16 1296 -208
WIRE -64 64 -64 -32
WIRE 0 64 -64 64
WIRE 352 64 320 64
WIRE 464 64 464 16
WIRE 592 64 464 64
WIRE 1920 80 1888 80
WIRE 2032 80 2000 80
WIRE 960 96 960 -128
WIRE 1552 96 1552 -80
WIRE 720 112 656 112
WIRE -256 128 -256 64
WIRE 464 128 464 64
WIRE 592 128 592 64
WIRE 720 144 720 112
WIRE 1888 144 1888 80
WIRE 1936 144 1888 144
WIRE 2032 144 2032 80
WIRE 2032 144 1984 144
WIRE -144 160 -192 160
WIRE 0 160 -64 160
WIRE 384 160 320 160
WIRE 1824 192 1792 192
WIRE 1920 192 1824 192
WIRE 2080 192 2000 192
WIRE -192 208 -192 160
WIRE 384 208 384 160
WIRE 416 208 384 208
WIRE 544 208 528 208
WIRE 656 208 656 192
WIRE 720 208 656 208
WIRE 960 224 960 176
WIRE 960 224 912 224
WIRE 384 240 384 208
WIRE 528 240 528 208
WIRE 528 240 384 240
WIRE 0 256 -128 256
WIRE 336 256 320 256
WIRE 352 272 352 64
WIRE 464 272 464 224
WIRE 464 272 352 272
WIRE 592 272 592 224
WIRE 592 272 464 272
WIRE 960 272 960 224
WIRE -128 304 -128 256
WIRE 592 320 592 272
WIRE 336 400 336 256
WIRE -192 432 -192 272
WIRE -128 432 -128 384
WIRE 160 432 160 304
WIRE 592 432 592 400
WIRE 752 432 752 -48
WIRE 960 432 960 352
WIRE 1024 432 1024 80
WIRE 1104 432 1104 80
WIRE 1184 432 1184 80
WIRE 1296 432 1296 80
FLAG -128 432 0
FLAG 160 432 0
FLAG -320 -320 0
FLAG -256 128 0
FLAG -192 432 0
FLAG -608 -208 0
FLAG 32 -208 Vin
FLAG 912 224 FB
FLAG 336 400 FB
FLAG 1824 192 Vout
FLAG 1552 96 0
FLAG 752 432 0
FLAG 960 432 0
FLAG 1024 432 0
FLAG 1104 432 0
FLAG 1184 432 0
FLAG 1296 432 0
FLAG 592 432 0
SYMBOL PowerProducts\\LTC1871 160 112 R0
SYMATTR InstName U1
SYMBOL res -144 288 R0
SYMATTR InstName R3
SYMATTR Value 250k
SYMBOL nmos 416 128 R0
WINDOW 3 -41 -22 Left 2
WINDOW 0 55 37 Left 2
SYMATTR Value BSC035N04LS
SYMATTR InstName M1
SYMBOL voltage -224 -320 R90
WINDOW 123 0 0 Left 0
WINDOW 39 -74 -6 VRight 2
WINDOW 3 -48 -57 VRight 2
SYMATTR SpiceLine Rser=0.01
SYMATTR Value SINE(12 0 100k)
SYMATTR InstName V1
SYMBOL polcap -112 -224 R90
WINDOW 3 32 32 VTop 2
WINDOW 0 0 32 VBottom 2
SYMATTR Value 33µ
SYMATTR InstName Cin
SYMATTR Description Capacitor
SYMATTR Type cap
SYMATTR SpiceLine V=35 Irms=1.86052 Rser=0.065 Lser=0 mfg="KEMET" pn="T521D336M035ATE065" type="Tantalum"
SYMBOL cap -272 0 R0
SYMATTR InstName C2
SYMATTR Value 4.7µ
SYMATTR SpiceLine V=10 Irms=4.27 Rser=0.0182602 Lser=0 mfg="KEMET" pn="C1206C475K8PAC" type="X5R"
SYMBOL res -48 144 R90
WINDOW 0 0 56 VBottom 2
WINDOW 3 32 56 VTop 2
SYMATTR InstName R4
SYMATTR Value 20k
SYMBOL cap -208 208 R0
SYMATTR InstName C1
SYMATTR Value 35n
SYMBOL ind2 624 -32 M180
WINDOW 0 -30 96 Left 2
WINDOW 3 -37 24 Left 2
SYMATTR InstName Lp
SYMATTR Value 65µ
SYMATTR Type ind
SYMATTR SpiceLine Rser=14m
SYMBOL ind2 768 -144 M0
WINDOW 0 -20 5 Left 2
WINDOW 3 -35 98 Left 2
SYMATTR InstName Ls
SYMATTR Value 70µ
SYMATTR Type ind
SYMATTR SpiceLine Rser=14m
SYMBOL res 944 80 R0
WINDOW 0 -47 45 Left 2
WINDOW 3 -56 83 Left 2
SYMATTR InstName R2
SYMATTR Value 20k
SYMATTR SpiceLine tol=1
SYMBOL res 944 256 R0
WINDOW 0 -46 51 Left 2
WINDOW 3 -61 96 Left 2
SYMATTR InstName R1
SYMATTR Value 1.3k
SYMATTR SpiceLine tol=1
SYMBOL res 1536 -176 R0
SYMATTR InstName RL
SYMATTR Value 4
SYMBOL res 576 304 R0
SYMATTR InstName Rsense
SYMATTR Value 0.009
SYMATTR SpiceLine tol=1
SYMBOL schottky 864 -112 R270
WINDOW 0 32 32 VTop 2
WINDOW 3 -15 13 VBottom 2
SYMATTR InstName D2
SYMATTR Value MBR20100CT
SYMBOL nmos 544 128 R0
WINDOW 3 53 -43 Left 2
WINDOW 0 61 48 Left 2
SYMATTR Value BSC035N04LS
SYMATTR InstName M2
SYMBOL schottky 864 -192 R270
WINDOW 0 32 32 VTop 2
WINDOW 3 84 31 VBottom 2
SYMATTR InstName D1
SYMATTR Value MBR20100CT
SYMBOL ind -32 -336 R90
WINDOW 0 5 56 VBottom 2
WINDOW 3 32 56 VTop 2
SYMATTR InstName L1
SYMATTR Value 1µ
SYMBOL res 384 -160 R0
SYMATTR InstName Run
SYMATTR Value 1Meg
SYMBOL polcap 1088 16 R0
WINDOW 3 24 56 Left 2
WINDOW 0 29 0 Left 2
SYMATTR Value 330µ
SYMATTR InstName Cout2
SYMATTR Description Capacitor
SYMATTR Type cap
SYMATTR SpiceLine V=35 Irms=1.01 Rser=0.065 Lser=0 mfg="Panasonic" pn="ECA1VFQ331" type="Al electrolytic"
SYMBOL cap 1168 16 R0
SYMATTR InstName Cout3
SYMATTR Value 10µ
SYMATTR SpiceLine V=35 Irms=8.06 Rser=0.00577565 Lser=0 mfg="KEMET" pn="C1210C106K6PAC" type="X5R"
SYMBOL polcap 1008 16 R0
WINDOW 3 24 56 Left 2
WINDOW 0 22 -6 Left 2
SYMATTR Value 330µ
SYMATTR InstName Cout1
SYMATTR Description Capacitor
SYMATTR Type cap
SYMATTR SpiceLine V=35 Irms=1.01 Rser=0.065 Lser=0 mfg="Panasonic" pn="ECA1VFQ331" type="Al electrolytic"
SYMBOL cap 1280 16 R0
SYMATTR InstName Cout4
SYMATTR Value 10µ
SYMATTR SpiceLine V=35 Irms=8.06 Rser=0.00577565 Lser=0 mfg="KEMET" pn="C1210C106K6PAC" type="X5R"
SYMBOL res 640 96 R0
WINDOW 3 17 84 Left 2
SYMATTR Value 2.2k
SYMATTR InstName R5
SYMBOL cap 640 208 R0
WINDOW 0 37 15 Left 2
SYMATTR InstName C3
SYMATTR Value 680µ
SYMBOL diode 704 144 R0
SYMATTR InstName D3
SYMBOL ind 512 -288 R90
WINDOW 0 -8 62 VBottom 2
WINDOW 3 -18 28 VTop 2
SYMATTR InstName Lparasito
SYMATTR Value 0.1µ
SYMBOL sw 2016 192 R90
SYMATTR InstName S1
SYMATTR Value MYSW
SYMBOL voltage 1904 80 R270
WINDOW 0 32 56 VTop 2
WINDOW 3 -32 56 VBottom 2
WINDOW 123 0 0 Left 0
WINDOW 39 0 0 Left 0
SYMATTR InstName V2
SYMATTR Value PULSE(0 5 10m 0 0 40m 42m 100)
SYMBOL current 1968 -96 R0
WINDOW 123 0 0 Left 0
WINDOW 39 0 0 Left 0
SYMATTR InstName I1
SYMATTR Value PULSE(5 0 15m 1p 1p 5m 15m)
TEXT 1008 -312 Left 2 !.tran 0 40m 0
TEXT 1016 -344 Left 2 !K1 Lp Ls 1
TEXT 1816 -336 Left 2 ;.save V(Vout)\n.step param r 1 11 1\n.measure Vavg avg V(Vout)\n.option plotwinsize = 0 numdgt=15
TEXT 1168 -384 Left 2 !.model MYSW SW(Ron=1 Roff=1Meg Vt=.5 Vh=-.4)
TEXT 1816 -376 Left 2 ;Regulacion de carga
